Live_GMASP_UFRS/8500-Node_real/IEEE8500u_Power_elem_kVA.txt

CIRCUIT ELEMENT POWER FLOW

(Power Flow into element from indicated Bus)

Power Delivery Elements

  Bus                Phase     kW     +j   kvar         kVA         PF

ELEMENT = "Vsource.SOURCE"
SOURCEBUS                1     -4137.0 +j   -679.3     4192.4       0.9868
SOURCEBUS                2     -3787.1 +j   -492.8     3819.0       0.9916
SOURCEBUS                3     -4123.6 +j   -283.1     4133.3       0.9977
   TERMINAL TOTAL ............-12047.6 +j  -1455.2    12135.2       0.9928
SOURCEBUS                0         0.0 +j      0.0        0.0       1.0000
SOURCEBUS                0         0.0 +j      0.0        0.0       1.0000
SOURCEBUS                0         0.0 +j      0.0        0.0       1.0000
   TERMINAL TOTAL ............     0.0 +j      0.0        0.0       1.0000

ELEMENT = "Line.HVMV_SUB_CONNECTOR"
_HVMV_SUB_LSB            1      4169.0 +j    271.3     4177.8       0.9979
_HVMV_SUB_LSB            2      4020.2 +j    363.2     4036.5       0.9959
_HVMV_SUB_LSB            3      3792.9 +j    -87.5     3793.9      -0.9997
   TERMINAL TOTAL ............ 11982.1 +j    547.0    11994.5       0.9990
HVMV_SUB_48332           1     -4169.0 +j   -271.3     4177.8       0.9979
HVMV_SUB_48332           2     -4020.2 +j   -363.2     4036.5       0.9959
HVMV_SUB_48332           3     -3792.9 +j     87.5     3793.9      -0.9997
   TERMINAL TOTAL ............-11982.1 +j   -546.9    11994.5       0.9990

ELEMENT = "Line.LN5502549-1"
M1009763                 2        13.8 +j      3.7       14.3       0.9662
   TERMINAL TOTAL ............    13.8 +j      3.7       14.3       0.9662
L2673322                 2       -13.8 +j     -3.7       14.3       0.9661
   TERMINAL TOTAL ............   -13.8 +j     -3.7       14.3       0.9661

ELEMENT = "Line.LN6259988-1"
M1069148                 3        10.4 +j      2.8       10.8       0.9658
   TERMINAL TOTAL ............    10.4 +j      2.8       10.8       0.9658
L2673309                 3       -10.4 +j     -2.8       10.8       0.9654
   TERMINAL TOTAL ............   -10.4 +j     -2.8       10.8       0.9654

ELEMENT = "Line.LN6077796-1"
M1069588                 2        11.9 +j      3.2       12.3       0.9660
   TERMINAL TOTAL ............    11.9 +j      3.2       12.3       0.9660
L2804270                 2       -11.9 +j     -3.2       12.3       0.9660
   TERMINAL TOTAL ............   -11.9 +j     -3.2       12.3       0.9660

ELEMENT = "Line.LN5835135-2"
M3036164                 2       115.3 +j     30.6      119.3       0.9666
   TERMINAL TOTAL ............   115.3 +j     30.6      119.3       0.9666
L2935553                 2      -115.3 +j    -30.6      119.3       0.9666
   TERMINAL TOTAL ............  -115.3 +j    -30.6      119.3       0.9666

ELEMENT = "Line.LN5896826-1"
M1209749                 2         5.9 +j      1.6        6.1       0.9669
   TERMINAL TOTAL ............     5.9 +j      1.6        6.1       0.9669
L2748840                 2        -5.9 +j     -1.6        6.1       0.9658
   TERMINAL TOTAL ............    -5.9 +j     -1.6        6.1       0.9658

ELEMENT = "Line.LN5714038-1"
M1108264                 2        15.8 +j      4.1       16.3       0.9678
   TERMINAL TOTAL ............    15.8 +j      4.1       16.3       0.9678
M1108263                 2       -15.8 +j     -4.1       16.3       0.9676
   TERMINAL TOTAL ............   -15.8 +j     -4.1       16.3       0.9676

ELEMENT = "Line.LN5653457-1"
L3085398                 1       140.9 +j     37.4      145.8       0.9666
L3085398                 2       299.2 +j     80.2      309.8       0.9659
L3085398                 3       114.4 +j     30.3      118.3       0.9667
   TERMINAL TOTAL ............   554.5 +j    147.8      573.9       0.9663
M1026891                 1      -140.9 +j    -37.4      145.7       0.9666
M1026891                 2      -299.0 +j    -80.1      309.5       0.9659
M1026891                 3      -114.3 +j    -30.3      118.3       0.9667
   TERMINAL TOTAL ............  -554.2 +j   -147.7      573.5       0.9662

ELEMENT = "Line.LN5835173-1"
L3216367                 1       202.9 +j     53.4      209.8       0.9671
L3216367                 2       448.6 +j    122.4      465.0       0.9647
L3216367                 3       343.4 +j     93.1      355.8       0.9652
   TERMINAL TOTAL ............   994.9 +j    268.9     1030.6       0.9654
M1069468                 1      -202.9 +j    -53.4      209.8       0.9671
M1069468                 2      -448.5 +j   -122.3      464.8       0.9648
M1069468                 3      -343.4 +j    -93.0      355.8       0.9652
   TERMINAL TOTAL ............  -994.8 +j   -268.8     1030.4       0.9654

ELEMENT = "Line.LN6321415-1"
M1142800                 2        10.0 +j      2.6       10.3       0.9672
   TERMINAL TOTAL ............    10.0 +j      2.6       10.3       0.9672
M1142799                 2       -10.0 +j     -2.6       10.3       0.9670
   TERMINAL TOTAL ............   -10.0 +j     -2.6       10.3       0.9670

ELEMENT = "Line.LN5565092-1"
M1047592                 3        15.6 +j      4.2       16.2       0.9660
   TERMINAL TOTAL ............    15.6 +j      4.2       16.2       0.9660
P827512                  3       -15.6 +j     -4.2       16.2       0.9660
   TERMINAL TOTAL ............   -15.6 +j     -4.2       16.2       0.9660

ELEMENT = "Line.LN6073648-1"
M1047339                 1        21.7 +j      5.8       22.4       0.9662
   TERMINAL TOTAL ............    21.7 +j      5.8       22.4       0.9662
P895104                  1       -21.7 +j     -5.8       22.4       0.9662
   TERMINAL TOTAL ............   -21.7 +j     -5.8       22.4       0.9662

ELEMENT = "Line.LN5774457-1"
M1026915                 1       211.4 +j     56.4      218.8       0.9662
M1026915                 2       171.2 +j     45.3      177.1       0.9667
M1026915                 3       164.8 +j     43.9      170.5       0.9664
   TERMINAL TOTAL ............   547.4 +j    145.6      566.4       0.9664
M1026920                 1      -211.3 +j    -56.4      218.7       0.9662
M1026920                 2      -171.2 +j    -45.3      177.1       0.9667
M1026920                 3      -164.8 +j    -43.9      170.5       0.9664
   TERMINAL TOTAL ............  -547.3 +j   -145.5      566.3       0.9664

ELEMENT = "Line.LN5534966-3"
N1138596                 1        78.6 +j     21.1       81.4       0.9659
   TERMINAL TOTAL ............    78.6 +j     21.1       81.4       0.9659
L3254207                 1       -78.6 +j    -21.1       81.4       0.9659
   TERMINAL TOTAL ............   -78.6 +j    -21.1       81.4       0.9659

ELEMENT = "Line.LN5859996-1"
M1069464                 2        19.8 +j      5.3       20.5       0.9661
   TERMINAL TOTAL ............    19.8 +j      5.3       20.5       0.9661
P873787                  2       -19.8 +j     -5.3       20.5       0.9661
   TERMINAL TOTAL ............   -19.8 +j     -5.3       20.5       0.9661

ELEMENT = "Line.LN6138610-2"
N1144665                 1       854.5 +j    229.5      884.8       0.9658
N1144665                 2       654.8 +j    179.8      679.1       0.9643
N1144665                 3       750.2 +j    204.5      777.6       0.9648
   TERMINAL TOTAL ............  2259.6 +j    613.8     2341.5       0.9650
M1047515                 1      -853.9 +j   -229.3      884.2       0.9658
M1047515                 2      -654.5 +j   -179.7      678.7       0.9643
M1047515                 3      -749.7 +j   -204.4      777.1       0.9648
   TERMINAL TOTAL ............ -2258.2 +j   -613.4     2340.0       0.9650

ELEMENT = "Line.LN6258435-3"
N1137002                 1        18.1 +j      4.9       18.7       0.9658
   TERMINAL TOTAL ............    18.1 +j      4.9       18.7       0.9658
M1047707                 1       -18.1 +j     -4.9       18.7       0.9657
   TERMINAL TOTAL ............   -18.1 +j     -4.9       18.7       0.9657

ELEMENT = "Line.LN5804790-1"
L2729406                 3        10.4 +j      2.8       10.8       0.9661
   TERMINAL TOTAL ............    10.4 +j      2.8       10.8       0.9661
L2897768                 3       -10.4 +j     -2.8       10.8       0.9655
   TERMINAL TOTAL ............   -10.4 +j     -2.8       10.8       0.9655

ELEMENT = "Line.LN6900591-14"
L3649301                 1        32.8 +j      8.8       33.9       0.9654
   TERMINAL TOTAL ............    32.8 +j      8.8       33.9       0.9654
L3649302                 1       -32.8 +j     -8.8       33.9       0.9654
   TERMINAL TOTAL ............   -32.8 +j     -8.8       33.9       0.9654

ELEMENT = "Line.LN6409873-1"
L2970842                 2        76.5 +j     20.0       79.1       0.9675
   TERMINAL TOTAL ............    76.5 +j     20.0       79.1       0.9675
M1089113                 2       -76.5 +j    -20.0       79.1       0.9675
   TERMINAL TOTAL ............   -76.5 +j    -20.0       79.1       0.9675

ELEMENT = "Line.LN6014135-1"
M1047312                 1        67.7 +j     18.1       70.1       0.9662
   TERMINAL TOTAL ............    67.7 +j     18.1       70.1       0.9662
P893163                  1       -67.7 +j    -18.1       70.1       0.9662
   TERMINAL TOTAL ............   -67.7 +j    -18.1       70.1       0.9662

ELEMENT = "Line.LN6077784-1"
L2822871                 1       409.1 +j    109.2      423.4       0.9662
L2822871                 2       497.2 +j    134.3      515.0       0.9654
L2822871                 3       306.3 +j     81.5      317.0       0.9663
   TERMINAL TOTAL ............  1212.6 +j    325.0     1255.4       0.9659
M1026872                 1      -408.9 +j   -109.1      423.3       0.9662
M1026872                 2      -497.1 +j   -134.1      514.8       0.9655
M1026872                 3      -306.3 +j    -81.5      317.0       0.9664
   TERMINAL TOTAL ............ -1212.3 +j   -324.7     1255.0       0.9659

ELEMENT = "Line.LN5744338-1"
M1026312                 2       186.7 +j     50.0      193.2       0.9659
   TERMINAL TOTAL ............   186.7 +j     50.0      193.2       0.9659
L2973163                 2      -186.6 +j    -50.0      193.2       0.9659
   TERMINAL TOTAL ............  -186.6 +j    -50.0      193.2       0.9659

ELEMENT = "Line.LN6991381-4"
L3728038                 1        36.3 +j      9.8       37.6       0.9656
   TERMINAL TOTAL ............    36.3 +j      9.8       37.6       0.9656
L3728039                 1       -36.3 +j     -9.8       37.6       0.9655
   TERMINAL TOTAL ............   -36.3 +j     -9.8       37.6       0.9655

ELEMENT = "Line.LN5774480-1"
M1069567                 2       225.5 +j     60.5      233.4       0.9659
   TERMINAL TOTAL ............   225.5 +j     60.5      233.4       0.9659
M1069582                 2      -225.2 +j    -60.3      233.2       0.9659
   TERMINAL TOTAL ............  -225.2 +j    -60.3      233.2       0.9659

ELEMENT = "Line.LN5986938-3"
N1140830                 1        38.0 +j     10.0       39.3       0.9668
   TERMINAL TOTAL ............    38.0 +j     10.0       39.3       0.9668
L3216351                 1       -38.0 +j    -10.0       39.3       0.9668
   TERMINAL TOTAL ............   -38.0 +j    -10.0       39.3       0.9668

ELEMENT = "Line.LN5894230-1"
L2952007                 3        10.3 +j      2.7       10.7       0.9665
   TERMINAL TOTAL ............    10.3 +j      2.7       10.7       0.9665
L2861158                 3       -10.3 +j     -2.8       10.7       0.9661
   TERMINAL TOTAL ............   -10.3 +j     -2.8       10.7       0.9661

ELEMENT = "Line.LN5683858-3"
N1140827                 1        18.2 +j      4.9       18.8       0.9658
N1140827                 2        30.0 +j      8.0       31.0       0.9658
N1140827                 3        20.8 +j      5.5       21.5       0.9664
   TERMINAL TOTAL ............    68.9 +j     18.5       71.4       0.9660
M1026726                 1       -18.2 +j     -4.9       18.8       0.9658
M1026726                 2       -30.0 +j     -8.0       31.0       0.9658
M1026726                 3       -20.8 +j     -5.5       21.5       0.9664
   TERMINAL TOTAL ............   -68.9 +j    -18.5       71.4       0.9660

ELEMENT = "Line.LN5920279-5"
L2730106                 1      2369.1 +j    357.4     2395.9       0.9888
L2730106                 2      2284.4 +j    371.6     2314.4       0.9870
L2730106                 3      1686.6 +j     70.0     1688.1       0.9991
   TERMINAL TOTAL ............  6340.1 +j    799.1     6390.2       0.9922
N1142099                 1     -2368.3 +j   -356.4     2394.9       0.9889
N1142099                 2     -2284.2 +j   -370.5     2314.0       0.9871
N1142099                 3     -1686.6 +j    -69.8     1688.0       0.9991
   TERMINAL TOTAL ............ -6339.0 +j   -796.7     6388.9       0.9922

ELEMENT = "Line.LN6439600-1"
M1026658                 1         9.1 +j      2.4        9.4       0.9658
   TERMINAL TOTAL ............     9.1 +j      2.4        9.4       0.9658
L3172805                 1        -9.1 +j     -2.4        9.4       0.9654
   TERMINAL TOTAL ............    -9.1 +j     -2.4        9.4       0.9654

ELEMENT = "Line.LN5589097-1"
P895112                  1        13.7 +j      3.7       14.1       0.9655
   TERMINAL TOTAL ............    13.7 +j      3.7       14.1       0.9655
L3048962                 1       -13.7 +j     -3.7       14.1       0.9655
   TERMINAL TOTAL ............   -13.7 +j     -3.7       14.1       0.9655

ELEMENT = "Line.LN5651975-1"
L2991914                 1       438.5 +j    118.5      454.2       0.9654
L2991914                 2       107.3 +j     28.1      110.9       0.9673
L2991914                 3       239.6 +j     63.3      247.8       0.9669
   TERMINAL TOTAL ............   785.4 +j    209.9      812.9       0.9661
M1047503                 1      -438.3 +j   -118.4      454.0       0.9654
M1047503                 2      -107.3 +j    -28.1      110.9       0.9673
M1047503                 3      -239.5 +j    -63.3      247.7       0.9668
   TERMINAL TOTAL ............  -785.1 +j   -209.8      812.6       0.9661

ELEMENT = "Line.LN5865236-1"
M1047751                 1        18.0 +j      4.8       18.7       0.9660
   TERMINAL TOTAL ............    18.0 +j      4.8       18.7       0.9660
L2973154                 1       -18.0 +j     -4.8       18.7       0.9660
   TERMINAL TOTAL ............   -18.0 +j     -4.8       18.7       0.9660

ELEMENT = "Line.LN5593232-1"
L3010565                 3        10.3 +j      2.7       10.7       0.9665
   TERMINAL TOTAL ............    10.3 +j      2.7       10.7       0.9665
L2897775                 3       -10.3 +j     -2.8       10.7       0.9661
   TERMINAL TOTAL ............   -10.3 +j     -2.8       10.7       0.9661

ELEMENT = "Line.LN5740283-1"
M1125955                 3        12.4 +j      3.3       12.8       0.9663
   TERMINAL TOTAL ............    12.4 +j      3.3       12.8       0.9663
M1125957                 3       -12.4 +j     -3.3       12.8       0.9663
   TERMINAL TOTAL ............   -12.4 +j     -3.3       12.8       0.9663

ELEMENT = "Line.LN6106559-1"
M1069640                 2        27.7 +j      7.4       28.7       0.9664
   TERMINAL TOTAL ............    27.7 +j      7.4       28.7       0.9664
L2804269                 2       -27.7 +j     -7.4       28.7       0.9663
   TERMINAL TOTAL ............   -27.7 +j     -7.4       28.7       0.9663

ELEMENT = "Line.LN5714056-3"
M1026702                 1       362.7 +j     96.8      375.4       0.9662
M1026702                 2        82.2 +j     21.7       85.0       0.9668
M1026702                 3       181.4 +j     48.2      187.7       0.9664
   TERMINAL TOTAL ............   626.2 +j    166.8      648.1       0.9663
N1139551                 1      -362.2 +j    -96.6      374.8       0.9662
N1139551                 2       -82.2 +j    -21.7       85.0       0.9668
N1139551                 3      -181.2 +j    -48.3      187.5       0.9663
   TERMINAL TOTAL ............  -625.5 +j   -166.6      647.3       0.9663

ELEMENT = "Line.LN5985355-3"
N1136355                 2       395.5 +j    106.4      409.6       0.9657
   TERMINAL TOTAL ............   395.5 +j    106.4      409.6       0.9657
L2783231                 2      -395.2 +j   -106.2      409.2       0.9657
   TERMINAL TOTAL ............  -395.2 +j   -106.2      409.2       0.9657

ELEMENT = "Line.LN5531956-1"
L2748143                 1         9.1 +j      2.4        9.4       0.9656
   TERMINAL TOTAL ............     9.1 +j      2.4        9.4       0.9656
L3251854                 1        -9.1 +j     -2.5        9.4       0.9654
   TERMINAL TOTAL ............    -9.1 +j     -2.5        9.4       0.9654

ELEMENT = "Line.LN5650048-1"
M1069610                 2         9.9 +j      2.7       10.3       0.9660
   TERMINAL TOTAL ............     9.9 +j      2.7       10.3       0.9660
M1069600                 2        -9.9 +j     -2.7       10.3       0.9658
   TERMINAL TOTAL ............    -9.9 +j     -2.7       10.3       0.9658

ELEMENT = "Line.LN6290203-1"
M1069424                 1       155.7 +j     41.0      161.0       0.9670
M1069424                 2       385.2 +j    104.5      399.2       0.9651
M1069424                 3       280.8 +j     75.6      290.8       0.9656
   TERMINAL TOTAL ............   821.7 +j    221.1      850.9       0.9656
L2935549                 1      -155.6 +j    -41.0      161.0       0.9670
L2935549                 2      -385.0 +j   -104.4      398.9       0.9652
L2935549                 3      -280.8 +j    -75.5      290.8       0.9657
   TERMINAL TOTAL ............  -821.5 +j   -220.9      850.7       0.9657

ELEMENT = "Line.LN6134414-1"
P895089                  3        20.7 +j      5.5       21.4       0.9664
   TERMINAL TOTAL ............    20.7 +j      5.5       21.4       0.9664
L3235242                 3       -20.7 +j     -5.5       21.4       0.9664
   TERMINAL TOTAL ............   -20.7 +j     -5.5       21.4       0.9664

ELEMENT = "Line.LN6259998-2"
M1026795                 3        12.4 +j      3.3       12.9       0.9660
   TERMINAL TOTAL ............    12.4 +j      3.3       12.9       0.9660
N1140522                 3       -12.4 +j     -3.3       12.9       0.9660
   TERMINAL TOTAL ............   -12.4 +j     -3.3       12.9       0.9660

ELEMENT = "Line.LN6078767-1"
L3030199                 1       761.6 +j   -102.8      768.5      -0.9910
L3030199                 2       912.8 +j    -49.2      914.2      -0.9986
L3030199                 3      1160.3 +j      3.2     1160.3       1.0000
   TERMINAL TOTAL ............  2834.8 +j   -148.9     2838.7      -0.9986
M1125934                 1      -761.6 +j    103.0      768.5      -0.9910
M1125934                 2      -912.7 +j     49.3      914.0      -0.9985
M1125934                 3     -1160.2 +j     -2.9     1160.2       1.0000
   TERMINAL TOTAL ............ -2834.5 +j    149.4     2838.5      -0.9986

ELEMENT = "Line.LN6017300-1"
M1069189                 3         6.2 +j      1.7        6.4       0.9659
   TERMINAL TOTAL ............     6.2 +j      1.7        6.4       0.9659
L2860487                 3        -6.2 +j     -1.7        6.4       0.9655
   TERMINAL TOTAL ............    -6.2 +j     -1.7        6.4       0.9655

ELEMENT = "Line.LN8979257-2"
221-312488               1         9.1 +j      2.4        9.4       0.9668
221-312488               2         9.9 +j      2.6       10.3       0.9673
221-312488               3        10.4 +j      2.7       10.8       0.9671
   TERMINAL TOTAL ............    29.4 +j      7.7       30.4       0.9671
M1089183                 1        -9.1 +j     -2.4        9.4       0.9665
M1089183                 2        -9.9 +j     -2.6       10.3       0.9671
M1089183                 3       -10.4 +j     -2.7       10.8       0.9668
   TERMINAL TOTAL ............   -29.4 +j     -7.8       30.5       0.9668

ELEMENT = "Line.LN81048109-1"
M1108464                 2        30.2 +j      8.0       31.2       0.9671
   TERMINAL TOTAL ............    30.2 +j      8.0       31.2       0.9671
L3102286                 2       -30.2 +j     -8.0       31.3       0.9667
   TERMINAL TOTAL ............   -30.2 +j     -8.0       31.3       0.9667

ELEMENT = "Line.293471"
F739845                  1         9.0 +j      2.4        9.3       0.9661
F739845                  2        10.0 +j      2.7       10.3       0.9656
F739845                  3        10.3 +j      2.8       10.7       0.9662
   TERMINAL TOTAL ............    29.3 +j      7.9       30.3       0.9660
293471                   1        -9.0 +j     -2.4        9.3       0.9659
293471                   2       -10.0 +j     -2.7       10.3       0.9654
293471                   3       -10.3 +j     -2.8       10.7       0.9661
   TERMINAL TOTAL ............   -29.3 +j     -7.9       30.4       0.9658

ELEMENT = "Line.LN5534965-2"
P827499                  1         9.1 +j      2.4        9.4       0.9656
   TERMINAL TOTAL ............     9.1 +j      2.4        9.4       0.9656
N1139254                 1        -9.1 +j     -2.4        9.4       0.9656
   TERMINAL TOTAL ............    -9.1 +j     -2.4        9.4       0.9656

ELEMENT = "Line.LN5655683-1"
M1026657                 1       142.5 +j     38.1      147.5       0.9661
   TERMINAL TOTAL ............   142.5 +j     38.1      147.5       0.9661
M1026656                 1      -142.5 +j    -38.1      147.5       0.9661
   TERMINAL TOTAL ............  -142.5 +j    -38.1      147.5       0.9661

ELEMENT = "Line.LN5686247-1"
M1108299                 2        13.9 +j      3.7       14.4       0.9663
   TERMINAL TOTAL ............    13.9 +j      3.7       14.4       0.9663
M1108300                 2       -13.9 +j     -3.7       14.4       0.9663
   TERMINAL TOTAL ............   -13.9 +j     -3.7       14.4       0.9663

ELEMENT = "Line.LN6048642-1"
L3198355                 2         0.0 +j     -0.0        0.0      -0.0000
   TERMINAL TOTAL ............     0.0 +j     -0.0        0.0      -0.0000
L2805037                 2         0.0 +j     -0.0        0.0      -0.3513
   TERMINAL TOTAL ............     0.0 +j     -0.0        0.0      -0.3513

ELEMENT = "Line.LN5928544-3"
N1137994                 3       104.0 +j     27.8      107.6       0.9662
   TERMINAL TOTAL ............   104.0 +j     27.8      107.6       0.9662
M1069484                 3      -103.9 +j    -27.7      107.6       0.9662
   TERMINAL TOTAL ............  -103.9 +j    -27.7      107.6       0.9662

ELEMENT = "Line.LN6108172-1"
L2860504                 1        18.1 +j      4.8       18.7       0.9661
   TERMINAL TOTAL ............    18.1 +j      4.8       18.7       0.9661
L2860493                 1       -18.1 +j     -4.9       18.7       0.9658
   TERMINAL TOTAL ............   -18.1 +j     -4.9       18.7       0.9658

ELEMENT = "Line.LN5532754-1"
M1026783                 1       402.4 +j    108.2      416.6       0.9657
M1026783                 2       107.2 +j     28.3      110.9       0.9670
M1026783                 3       199.1 +j     52.6      206.0       0.9668
   TERMINAL TOTAL ............   708.7 +j    189.1      733.5       0.9662
M1026780                 1      -402.3 +j   -108.1      416.5       0.9657
M1026780                 2      -107.2 +j    -28.3      110.9       0.9670
M1026780                 3      -199.1 +j    -52.6      206.0       0.9668
   TERMINAL TOTAL ............  -708.6 +j   -189.0      733.4       0.9662

ELEMENT = "Line.LN5591834-1"
P895111                  3        26.9 +j      7.2       27.9       0.9664
   TERMINAL TOTAL ............    26.9 +j      7.2       27.9       0.9664
L2895496                 3       -26.9 +j     -7.2       27.9       0.9664
   TERMINAL TOTAL ............   -26.9 +j     -7.2       27.9       0.9664

ELEMENT = "Line.LN6347196-2"
N1140819                 1       195.5 +j     52.0      202.3       0.9664
N1140819                 2        76.2 +j     20.2       78.8       0.9667
N1140819                 3       181.0 +j     48.2      187.3       0.9663
   TERMINAL TOTAL ............   452.7 +j    120.4      468.5       0.9664
M1026700                 1      -195.5 +j    -52.0      202.3       0.9664
M1026700                 2       -76.2 +j    -20.2       78.8       0.9667
M1026700                 3      -181.0 +j    -48.2      187.3       0.9663
   TERMINAL TOTAL ............  -452.7 +j   -120.4      468.4       0.9664

ELEMENT = "Line.LN5532741-1"
M1089173                 3        63.4 +j     16.9       65.6       0.9664
   TERMINAL TOTAL ............    63.4 +j     16.9       65.6       0.9664
L2935551                 3       -63.4 +j    -16.9       65.6       0.9664
   TERMINAL TOTAL ............   -63.4 +j    -16.9       65.6       0.9664

ELEMENT = "Line.LN5804803-1"
M1026344                 1         5.4 +j      1.4        5.6       0.9674
   TERMINAL TOTAL ............     5.4 +j      1.4        5.6       0.9674
M1026364                 1        -5.4 +j     -1.5        5.6       0.9658
   TERMINAL TOTAL ............    -5.4 +j     -1.5        5.6       0.9658

ELEMENT = "Line.LN6169248-1"
L2879070                 1       794.8 +j    215.5      823.5       0.9651
L2879070                 2       533.9 +j    146.6      553.6       0.9643
L2879070                 3       327.9 +j     87.2      339.3       0.9664
   TERMINAL TOTAL ............  1656.6 +j    449.3     1716.4       0.9651
L3216345                 1      -794.1 +j   -214.9      822.6       0.9653
L3216345                 2      -533.7 +j   -146.3      553.4       0.9644
L3216345                 3      -327.8 +j    -87.2      339.2       0.9664
   TERMINAL TOTAL ............ -1655.6 +j   -448.4     1715.3       0.9652

ELEMENT = "Line.LN5532786-2"
M1069428                 2        15.9 +j      4.2       16.4       0.9660
   TERMINAL TOTAL ............    15.9 +j      4.2       16.4       0.9660
N1139257                 2       -15.9 +j     -4.2       16.4       0.9660
   TERMINAL TOTAL ............   -15.9 +j     -4.2       16.4       0.9660

ELEMENT = "Line.LN5744339-1"
L2991919                 1       114.9 +j     30.7      118.9       0.9660
   TERMINAL TOTAL ............   114.9 +j     30.7      118.9       0.9660
M1026361                 1      -114.8 +j    -30.7      118.9       0.9660
   TERMINAL TOTAL ............  -114.8 +j    -30.7      118.9       0.9660

ELEMENT = "Line.LN5531255-3"
N1147857                 1       118.5 +j     31.6      122.6       0.9661
   TERMINAL TOTAL ............   118.5 +j     31.6      122.6       0.9661
M1009742                 1      -118.4 +j    -31.6      122.6       0.9661
   TERMINAL TOTAL ............  -118.4 +j    -31.6      122.6       0.9661

ELEMENT = "Line.LN5926308-2"
Q14412                   1       284.2 +j     75.3      294.0       0.9666
Q14412                   2       344.1 +j     93.5      356.6       0.9650
Q14412                   3       137.9 +j     36.3      142.6       0.9671
   TERMINAL TOTAL ............   766.1 +j    205.1      793.1       0.9660
M1047325                 1      -284.1 +j    -75.3      293.9       0.9666
M1047325                 2      -344.0 +j    -93.4      356.5       0.9650
M1047325                 3      -137.9 +j    -36.3      142.5       0.9671
   TERMINAL TOTAL ............  -765.9 +j   -205.0      792.9       0.9660

ELEMENT = "Line.LN5683856-3"
N1139263                 1         9.1 +j      2.4        9.4       0.9655
   TERMINAL TOTAL ............     9.1 +j      2.4        9.4       0.9655
L3048227                 1        -9.1 +j     -2.4        9.4       0.9654
   TERMINAL TOTAL ............    -9.1 +j     -2.4        9.4       0.9654

ELEMENT = "Line.LN6171502-1"
P827506                  1        14.5 +j      3.9       15.0       0.9659
   TERMINAL TOTAL ............    14.5 +j      3.9       15.0       0.9659
M1069469                 1       -14.5 +j     -3.9       15.0       0.9659
   TERMINAL TOTAL ............   -14.5 +j     -3.9       15.0       0.9659

ELEMENT = "Line.LN5593228-1"
M1027019                 2        10.0 +j      2.7       10.3       0.9655
   TERMINAL TOTAL ............    10.0 +j      2.7       10.3       0.9655
L2785522                 2       -10.0 +j     -2.7       10.3       0.9653
   TERMINAL TOTAL ............   -10.0 +j     -2.7       10.3       0.9653

ELEMENT = "Line.LN6380800-1"
L3216338                 2        10.0 +j      2.7       10.3       0.9658
   TERMINAL TOTAL ............    10.0 +j      2.7       10.3       0.9658
L2973146                 2       -10.0 +j     -2.7       10.3       0.9656
   TERMINAL TOTAL ............   -10.0 +j     -2.7       10.3       0.9656

ELEMENT = "Line.LN6199525-2"
M3037452                 1         3.6 +j      1.0        3.7       0.9664
   TERMINAL TOTAL ............     3.6 +j      1.0        3.7       0.9664
L2973164                 1        -3.6 +j     -1.0        3.7       0.9658
   TERMINAL TOTAL ............    -3.6 +j     -1.0        3.7       0.9658

ELEMENT = "Line.LN5772710-2"
L3120376                 1        72.2 +j     19.3       74.7       0.9660
   TERMINAL TOTAL ............    72.2 +j     19.3       74.7       0.9660
M1026925                 1       -72.2 +j    -19.3       74.7       0.9660
   TERMINAL TOTAL ............   -72.2 +j    -19.3       74.7       0.9660

ELEMENT = "Line.LN8961760-1"
M1047612                 3        36.4 +j      9.6       37.6       0.9672
   TERMINAL TOTAL ............    36.4 +j      9.6       37.6       0.9672
P828360                  3       -36.4 +j     -9.6       37.6       0.9672
   TERMINAL TOTAL ............   -36.4 +j     -9.6       37.6       0.9672

ELEMENT = "Line.LN6047556-1"
M1089195                 3        10.3 +j      2.8       10.7       0.9663
   TERMINAL TOTAL ............    10.3 +j      2.8       10.7       0.9663
L3141393                 3       -10.3 +j     -2.8       10.7       0.9659
   TERMINAL TOTAL ............   -10.3 +j     -2.8       10.7       0.9659

ELEMENT = "Line.LN6138603-1"
M1026946                 2        15.9 +j      4.2       16.5       0.9664
   TERMINAL TOTAL ............    15.9 +j      4.2       16.5       0.9664
M1026940                 2       -15.9 +j     -4.2       16.5       0.9662
   TERMINAL TOTAL ............   -15.9 +j     -4.2       16.5       0.9662

ELEMENT = "Line.LN6108139-1"
M1047471                 2         6.0 +j      1.6        6.2       0.9658
   TERMINAL TOTAL ............     6.0 +j      1.6        6.2       0.9658
L3216349                 2        -6.0 +j     -1.6        6.2       0.9657
   TERMINAL TOTAL ............    -6.0 +j     -1.6        6.2       0.9657

ELEMENT = "Line.LN6388581-2"
M1047401                 1         5.4 +j      1.4        5.6       0.9679
   TERMINAL TOTAL ............     5.4 +j      1.4        5.6       0.9679
L2748132                 1        -5.4 +j     -1.4        5.6       0.9676
   TERMINAL TOTAL ............    -5.4 +j     -1.4        5.6       0.9676

ELEMENT = "Line.LN5774460-1"
L3122820                 1         5.4 +j      1.5        5.6       0.9659
   TERMINAL TOTAL ............     5.4 +j      1.5        5.6       0.9659
L3141398                 1        -5.4 +j     -1.5        5.6       0.9656
   TERMINAL TOTAL ............    -5.4 +j     -1.5        5.6       0.9656

ELEMENT = "Line.LN5624387-1"
M1108360                 3        15.6 +j      4.2       16.1       0.9661
   TERMINAL TOTAL ............    15.6 +j      4.2       16.1       0.9661
L3048968                 3       -15.6 +j     -4.2       16.1       0.9660
   TERMINAL TOTAL ............   -15.6 +j     -4.2       16.1       0.9660

ELEMENT = "Line.LN6137087-1"
L2801950                 3        82.9 +j     22.1       85.8       0.9663
   TERMINAL TOTAL ............    82.9 +j     22.1       85.8       0.9663
M1069224                 3       -82.9 +j    -22.1       85.8       0.9663
   TERMINAL TOTAL ............   -82.9 +j    -22.1       85.8       0.9663

ELEMENT = "Line.LN6077809-1"
L2766746                 3       104.2 +j     27.9      107.9       0.9659
   TERMINAL TOTAL ............   104.2 +j     27.9      107.9       0.9659
M1027073                 3      -104.2 +j    -27.9      107.8       0.9659
   TERMINAL TOTAL ............  -104.2 +j    -27.9      107.8       0.9659

ELEMENT = "Line.LN6440079-1"
L2895496                 3        26.9 +j      7.2       27.9       0.9664
   TERMINAL TOTAL ............    26.9 +j      7.2       27.9       0.9664
M1142873                 3       -26.9 +j     -7.2       27.9       0.9663
   TERMINAL TOTAL ............   -26.9 +j     -7.2       27.9       0.9663

ELEMENT = "Line.LN5804794-1"
M1069181                 1        82.4 +j     22.2       85.4       0.9657
   TERMINAL TOTAL ............    82.4 +j     22.2       85.4       0.9657
L2973151                 1       -82.4 +j    -22.2       85.4       0.9657
   TERMINAL TOTAL ............   -82.4 +j    -22.2       85.4       0.9657

ELEMENT = "Line.LN5654484-1"
L3179682                 3        10.3 +j      2.8       10.7       0.9662
   TERMINAL TOTAL ............    10.3 +j      2.8       10.7       0.9662
L2786274                 3       -10.3 +j     -2.8       10.7       0.9661
   TERMINAL TOTAL ............   -10.3 +j     -2.8       10.7       0.9661

ELEMENT = "Line.LN5774465-1"
L3066816                 1        18.2 +j      4.7       18.8       0.9676
   TERMINAL TOTAL ............    18.2 +j      4.7       18.8       0.9676
M1026667                 1       -18.2 +j     -4.8       18.8       0.9674
   TERMINAL TOTAL ............   -18.2 +j     -4.8       18.8       0.9674

ELEMENT = "Line.LN5473349-1"
M1108529                 1      2211.1 +j    289.8     2230.0       0.9915
M1108529                 2      2250.4 +j    327.4     2274.1       0.9896
M1108529                 3      1590.1 +j     34.5     1590.5       0.9998
   TERMINAL TOTAL ............  6051.6 +j    651.8     6086.6       0.9942
M1108532                 1     -2210.5 +j   -289.1     2229.3       0.9916
M1108532                 2     -2250.1 +j   -326.3     2273.6       0.9896
M1108532                 3     -1590.1 +j    -34.2     1590.5       0.9998
   TERMINAL TOTAL ............ -6050.7 +j   -649.6     6085.5       0.9943

ELEMENT = "Line.LN6169253-1"
L2766723                 1         9.0 +j      2.4        9.3       0.9659
   TERMINAL TOTAL ............     9.0 +j      2.4        9.3       0.9659
L3122822                 1        -9.0 +j     -2.4        9.3       0.9658
   TERMINAL TOTAL ............    -9.0 +j     -2.4        9.3       0.9658

ELEMENT = "Line.LN6350536-1"
L2673312                 1         5.4 +j      1.4        5.6       0.9665
   TERMINAL TOTAL ............     5.4 +j      1.4        5.6       0.9665
L3235247                 1        -5.4 +j     -1.5        5.6       0.9656
   TERMINAL TOTAL ............    -5.4 +j     -1.5        5.6       0.9656

ELEMENT = "Line.LN6048523-1"
M1166391                 3       149.6 +j     39.9      154.8       0.9662
   TERMINAL TOTAL ............   149.6 +j     39.9      154.8       0.9662
L3254873                 3      -149.5 +j    -39.8      154.7       0.9663
   TERMINAL TOTAL ............  -149.5 +j    -39.8      154.7       0.9663

ELEMENT = "Line.LN5594152-1"
L2861157                 3       166.9 +j     44.6      172.8       0.9661
   TERMINAL TOTAL ............   166.9 +j     44.6      172.8       0.9661
P901951                  3      -166.9 +j    -44.6      172.7       0.9661
   TERMINAL TOTAL ............  -166.9 +j    -44.6      172.7       0.9661

ELEMENT = "Line.LN5865248-1"
M1047346                 1       333.9 +j     88.6      345.5       0.9666
M1047346                 2       360.1 +j     98.0      373.2       0.9649
M1047346                 3       138.0 +j     36.2      142.7       0.9672
   TERMINAL TOTAL ............   832.0 +j    222.8      861.3       0.9660
M1047345                 1      -333.7 +j    -88.5      345.3       0.9666
M1047345                 2      -360.0 +j    -97.9      373.1       0.9649
M1047345                 3      -138.0 +j    -36.2      142.6       0.9672
   TERMINAL TOTAL ............  -831.7 +j   -222.7      861.0       0.9660

ELEMENT = "Line.LN6046143-1"
L2989596                 2         3.9 +j      1.0        4.1       0.9665
   TERMINAL TOTAL ............     3.9 +j      1.0        4.1       0.9665
L2822873                 2        -3.9 +j     -1.1        4.1       0.9658
   TERMINAL TOTAL ............    -3.9 +j     -1.1        4.1       0.9658

ELEMENT = "Line.LN5803287-1"
M1108328                 3        21.0 +j      5.6       21.7       0.9657
   TERMINAL TOTAL ............    21.0 +j      5.6       21.7       0.9657
L2875754                 3       -21.0 +j     -5.6       21.7       0.9656
   TERMINAL TOTAL ............   -21.0 +j     -5.6       21.7       0.9656

ELEMENT = "Line.LN5589094-1"
L2786204                 3       230.8 +j     62.1      239.0       0.9656
   TERMINAL TOTAL ............   230.8 +j     62.1      239.0       0.9656
M1209819                 3      -230.7 +j    -62.1      238.9       0.9657
   TERMINAL TOTAL ............  -230.7 +j    -62.1      238.9       0.9657

ELEMENT = "Line.LN5954983-1"
P901972                  1       118.4 +j     31.6      122.6       0.9661
   TERMINAL TOTAL ............   118.4 +j     31.6      122.6       0.9661
M1009726                 1      -118.4 +j    -31.6      122.5       0.9661
   TERMINAL TOTAL ............  -118.4 +j    -31.6      122.5       0.9661

ELEMENT = "Line.LN5924696-2"
M1047702                 1         5.4 +j      1.4        5.6       0.9663
   TERMINAL TOTAL ............     5.4 +j      1.4        5.6       0.9663
N1137001                 1        -5.4 +j     -1.4        5.6       0.9660
   TERMINAL TOTAL ............    -5.4 +j     -1.4        5.6       0.9660

ELEMENT = "Line.LN6506311-4"
L2767340                 1        -0.0 +j     -0.0        0.0       0.0240
L2767340                 2        -0.0 +j     -0.0        0.0       0.0505
L2767340                 3         6.2 +j      1.7        6.4       0.9661
   TERMINAL TOTAL ............     6.2 +j      1.7        6.4       0.9662
M3037449                 1        -0.0 +j      0.0        0.0      -0.5092
M3037449                 2         0.0 +j      0.0        0.0       0.7512
M3037449                 3        -6.2 +j     -1.7        6.4       0.9661
   TERMINAL TOTAL ............    -6.2 +j     -1.7        6.4       0.9661

ELEMENT = "Line.LN5653493-1"
M1047457                 2       118.4 +j     31.7      122.5       0.9661
   TERMINAL TOTAL ............   118.4 +j     31.7      122.5       0.9661
L2710546                 2      -118.3 +j    -31.6      122.5       0.9661
   TERMINAL TOTAL ............  -118.3 +j    -31.6      122.5       0.9661

ELEMENT = "Line.LN5684836-1"
L2674027                 1      2216.0 +j    296.7     2235.8       0.9912
L2674027                 2      2252.8 +j    336.1     2277.7       0.9891
L2674027                 3      1678.4 +j     60.8     1679.5       0.9993
   TERMINAL TOTAL ............  6147.2 +j    693.6     6186.2       0.9937
L2692633                 1     -2214.0 +j   -294.0     2233.4       0.9913
L2692633                 2     -2251.9 +j   -332.8     2276.4       0.9893
L2692633                 3     -1678.5 +j    -59.9     1679.5       0.9994
   TERMINAL TOTAL ............ -6144.3 +j   -686.7     6182.6       0.9938

ELEMENT = "Line.LN5715016-3"
N1142108                 1         5.4 +j      1.4        5.6       0.9661
   TERMINAL TOTAL ............     5.4 +j      1.4        5.6       0.9661
L2674051                 1        -5.4 +j     -1.5        5.6       0.9657
   TERMINAL TOTAL ............    -5.4 +j     -1.5        5.6       0.9657

ELEMENT = "Line.LN6138614-1"
M1069135                 1       353.3 +j   -214.6      413.4      -0.8547
M1069135                 2       361.3 +j   -205.0      415.4      -0.8697
M1069135                 3       169.4 +j   -274.8      322.8      -0.5249
   TERMINAL TOTAL ............   884.1 +j   -694.4     1124.2      -0.7864
R18242                   1      -352.9 +j    214.7      413.1      -0.8544
R18242                   2      -360.9 +j    205.2      415.2      -0.8694
R18242                   3      -169.3 +j    274.8      322.8      -0.5245
   TERMINAL TOTAL ............  -883.2 +j    694.7     1123.6      -0.7860

ELEMENT = "Line.LN6077781-2"
M1047534                 1      1888.6 +j    518.5     1958.5       0.9643
M1047534                 2      1732.2 +j    485.8     1799.1       0.9628
M1047534                 3      1419.8 +j    385.2     1471.2       0.9651
   TERMINAL TOTAL ............  5040.7 +j   1389.5     5228.7       0.9640
N1136663                 1     -1883.9 +j   -514.5     1952.9       0.9647
N1136663                 2     -1729.1 +j   -482.3     1795.1       0.9632
N1136663                 3     -1417.9 +j   -383.5     1468.8       0.9653
   TERMINAL TOTAL ............ -5030.8 +j  -1380.3     5216.7       0.9644

ELEMENT = "Line.LN5675121-1"
M1108508                 3         4.1 +j      1.1        4.3       0.9667
   TERMINAL TOTAL ............     4.1 +j      1.1        4.3       0.9667
L3097861                 3        -4.1 +j     -1.1        4.3       0.9660
   TERMINAL TOTAL ............    -4.1 +j     -1.1        4.3       0.9660

ELEMENT = "Line.LN5773046-1"
M1069560                 2       245.6 +j     65.9      254.3       0.9658
   TERMINAL TOTAL ............   245.6 +j     65.9      254.3       0.9658
M1069567                 2      -245.5 +j    -65.8      254.1       0.9659
   TERMINAL TOTAL ............  -245.5 +j    -65.8      254.1       0.9659

ELEMENT = "Line.LN6380809-2"
L2973153                 1       165.1 +j     43.5      170.7       0.9670
L2973153                 2       510.3 +j    139.4      529.0       0.9647
L2973153                 3        58.1 +j     15.3       60.1       0.9672
   TERMINAL TOTAL ............   733.5 +j    198.1      759.8       0.9654
N1136998                 1      -165.1 +j    -43.5      170.7       0.9670
N1136998                 2      -510.2 +j   -139.4      528.9       0.9647
N1136998                 3       -58.1 +j    -15.3       60.1       0.9671
   TERMINAL TOTAL ............  -733.4 +j   -198.1      759.7       0.9654

ELEMENT = "Line.LN6018326-1"
L2898515                 3        12.4 +j      3.3       12.8       0.9665
   TERMINAL TOTAL ............    12.4 +j      3.3       12.8       0.9665
M1166387                 3       -12.4 +j     -3.3       12.8       0.9664
   TERMINAL TOTAL ............   -12.4 +j     -3.3       12.8       0.9664

ELEMENT = "Line.LN5472356-1"
M1047442                 2         4.0 +j      1.1        4.1       0.9661
   TERMINAL TOTAL ............     4.0 +j      1.1        4.1       0.9661
L3235250                 2        -4.0 +j     -1.1        4.1       0.9656
   TERMINAL TOTAL ............    -4.0 +j     -1.1        4.1       0.9656

ELEMENT = "Line.LN6139641-1"
M1142871                 1      2782.6 +j    556.8     2837.7       0.9806
M1142871                 2      2705.0 +j    604.7     2771.8       0.9759
M1142871                 3      1986.2 +j    178.1     1994.2       0.9960
   TERMINAL TOTAL ............  7473.8 +j   1339.6     7592.9       0.9843
M1142874                 1     -2780.9 +j   -554.6     2835.6       0.9807
M1142874                 2     -2704.4 +j   -602.1     2770.6       0.9761
M1142874                 3     -1986.2 +j   -177.4     1994.1       0.9960
   TERMINAL TOTAL ............ -7471.5 +j  -1334.0     7589.7       0.9844

ELEMENT = "Line.LN6018341-1"
L2955081                 1       717.0 +j   -117.7      726.6      -0.9868
L2955081                 2       827.3 +j    -74.2      830.6      -0.9960
L2955081                 3      1120.7 +j    -15.5     1120.8      -0.9999
   TERMINAL TOTAL ............  2665.0 +j   -207.4     2673.1      -0.9970
M1108315                 1      -717.0 +j    118.0      726.7      -0.9867
M1108315                 2      -826.9 +j     74.5      830.3      -0.9960
M1108315                 3     -1120.4 +j     16.4     1120.5      -0.9999
   TERMINAL TOTAL ............ -2664.3 +j    209.0     2672.5      -0.9969

ELEMENT = "Line.LN6017302-1"
L2973162                 1        14.4 +j      3.8       14.9       0.9670
L2973162                 2       271.7 +j     73.1      281.4       0.9657
L2973162                 3         6.2 +j      1.6        6.4       0.9680
   TERMINAL TOTAL ............   292.3 +j     78.5      302.7       0.9658
M1026333                 1       -14.4 +j     -3.8       14.9       0.9668
M1026333                 2      -271.6 +j    -73.0      281.2       0.9657
M1026333                 3        -6.2 +j     -1.6        6.4       0.9676
   TERMINAL TOTAL ............  -292.2 +j    -78.5      302.5       0.9658

ELEMENT = "Line.LN6199505-1"
M1009832                 2         3.9 +j      1.0        4.1       0.9663
   TERMINAL TOTAL ............     3.9 +j      1.0        4.1       0.9663
L2860479                 2        -3.9 +j     -1.1        4.1       0.9660
   TERMINAL TOTAL ............    -3.9 +j     -1.1        4.1       0.9660

ELEMENT = "Line.LN5682327-1"
M1026854                 1       136.5 +j     36.5      141.3       0.9660
   TERMINAL TOTAL ............   136.5 +j     36.5      141.3       0.9660
P901894                  1      -136.5 +j    -36.5      141.3       0.9660
   TERMINAL TOTAL ............  -136.5 +j    -36.5      141.3       0.9660

ELEMENT = "Line.LN6290243-1"
M1026485                 2        20.2 +j      5.4       20.9       0.9654
   TERMINAL TOTAL ............    20.2 +j      5.4       20.9       0.9654
M1026492                 2       -20.2 +j     -5.5       20.9       0.9653
   TERMINAL TOTAL ............   -20.2 +j     -5.5       20.9       0.9653

ELEMENT = "Line.X8223_48332_SW"
D6413567-3_INT           1       562.2 +j   -159.9      584.5      -0.9619
D6413567-3_INT           2       607.0 +j   -136.8      622.2      -0.9755
D6413567-3_INT           3       220.4 +j   -260.4      341.1      -0.6460
   TERMINAL TOTAL ............  1389.6 +j   -557.1     1497.1      -0.9282
E182724                  1      -562.2 +j    159.9      584.5      -0.9619
E182724                  2      -607.0 +j    136.8      622.2      -0.9755
E182724                  3      -220.4 +j    260.4      341.1      -0.6460
   TERMINAL TOTAL ............ -1389.6 +j    557.1     1497.1      -0.9282

ELEMENT = "Line.LN6413567-3"
N1139541                 1       562.4 +j   -159.9      584.7      -0.9619
N1139541                 2       607.2 +j   -136.7      622.4      -0.9756
N1139541                 3       220.4 +j   -260.3      341.1      -0.6461
   TERMINAL TOTAL ............  1390.0 +j   -556.9     1497.4      -0.9283
D6413567-3_INT           1      -562.2 +j    159.9      584.5      -0.9619
D6413567-3_INT           2      -607.0 +j    136.8      622.2      -0.9755
D6413567-3_INT           3      -220.4 +j    260.4      341.1      -0.6460
   TERMINAL TOTAL ............ -1389.6 +j    557.1     1497.1      -0.9282

ELEMENT = "Line.LN5591731-3"
M4122658                 1      2402.4 +j    373.1     2431.2       0.9882
M4122658                 2      2286.4 +j    380.7     2317.9       0.9864
M4122658                 3      1697.1 +j     75.0     1698.7       0.9990
   TERMINAL TOTAL ............  6385.8 +j    828.8     6439.4       0.9917
L2933135                 1     -2402.3 +j   -373.0     2431.1       0.9882
L2933135                 2     -2286.4 +j   -380.6     2317.8       0.9864
L2933135                 3     -1697.1 +j    -75.0     1698.7       0.9990
   TERMINAL TOTAL ............ -6385.8 +j   -828.7     6439.3       0.9917

ELEMENT = "Line.LN5653470-1"
M1026702                 1         9.0 +j      2.4        9.3       0.9662
M1026702                 2         9.9 +j      2.6       10.3       0.9661
M1026702                 3        10.4 +j      2.8       10.7       0.9661
   TERMINAL TOTAL ............    29.3 +j      7.8       30.3       0.9661
L2729414                 1        -9.0 +j     -2.4        9.3       0.9659
L2729414                 2        -9.9 +j     -2.7       10.3       0.9658
L2729414                 3       -10.4 +j     -2.8       10.7       0.9659
   TERMINAL TOTAL ............   -29.3 +j     -7.9       30.3       0.9659

ELEMENT = "Line.LN6017316-1"
L2729430                 2       244.0 +j     65.3      252.6       0.9660
   TERMINAL TOTAL ............   244.0 +j     65.3      252.6       0.9660
L2766742                 2      -243.8 +j    -65.2      252.3       0.9660
   TERMINAL TOTAL ............  -243.8 +j    -65.2      252.3       0.9660

ELEMENT = "Line.LN5926299-1"
M1026972                 2        19.9 +j      5.3       20.6       0.9660
   TERMINAL TOTAL ............    19.9 +j      5.3       20.6       0.9660
L2860483                 2       -19.9 +j     -5.3       20.6       0.9659
   TERMINAL TOTAL ............   -19.9 +j     -5.3       20.6       0.9659

ELEMENT = "Line.LN5683831-1"
L2860490                 1       334.4 +j     88.7      345.9       0.9666
L2860490                 2       360.5 +j     98.2      373.7       0.9649
L2860490                 3       169.2 +j     44.6      175.0       0.9670
   TERMINAL TOTAL ............   864.1 +j    231.4      894.5       0.9660
L3104134                 1      -334.1 +j    -88.6      345.6       0.9666
L3104134                 2      -360.3 +j    -98.1      373.4       0.9649
L3104134                 3      -169.2 +j    -44.6      174.9       0.9670
   TERMINAL TOTAL ............  -863.6 +j   -231.2      894.0       0.9660

ELEMENT = "Line.LN6352700-1"
M1089144                 1        36.1 +j      9.6       37.4       0.9663
   TERMINAL TOTAL ............    36.1 +j      9.6       37.4       0.9663
P827522                  1       -36.1 +j     -9.6       37.4       0.9663
   TERMINAL TOTAL ............   -36.1 +j     -9.6       37.4       0.9663

ELEMENT = "Line.LN6047570-1"
M1089118                 1         5.4 +j      1.4        5.6       0.9659
   TERMINAL TOTAL ............     5.4 +j      1.4        5.6       0.9659
L3048208                 1        -5.4 +j     -1.5        5.6       0.9656
   TERMINAL TOTAL ............    -5.4 +j     -1.5        5.6       0.9656

ELEMENT = "Line.LN5624342-1"
M1108505                 1      2230.5 +j    306.1     2251.5       0.9907
M1108505                 2      2280.0 +j    351.8     2307.0       0.9883
M1108505                 3      1678.3 +j     63.1     1679.5       0.9993
   TERMINAL TOTAL ............  6188.9 +j    721.1     6230.8       0.9933
L2955047                 1     -2228.9 +j   -304.0     2249.5       0.9908
L2955047                 2     -2279.3 +j   -349.1     2305.9       0.9885
L2955047                 3     -1678.4 +j    -62.4     1679.5       0.9993
   TERMINAL TOTAL ............ -6186.5 +j   -715.5     6227.8       0.9934

ELEMENT = "Line.LN6259992-1"
M1089148                 1         9.1 +j      2.5        9.4       0.9654
   TERMINAL TOTAL ............     9.1 +j      2.5        9.4       0.9654
L2766721                 1        -9.1 +j     -2.5        9.4       0.9652
   TERMINAL TOTAL ............    -9.1 +j     -2.5        9.4       0.9652

ELEMENT = "Line.LN5841919-1"
M1026745                 2         6.0 +j      1.6        6.2       0.9660
   TERMINAL TOTAL ............     6.0 +j      1.6        6.2       0.9660
L3029183                 2        -6.0 +j     -1.6        6.2       0.9656
   TERMINAL TOTAL ............    -6.0 +j     -1.6        6.2       0.9656

ELEMENT = "Line.LN6380811-1"
L2710512                 2       113.6 +j     30.3      117.6       0.9661
   TERMINAL TOTAL ............   113.6 +j     30.3      117.6       0.9661
M1047828                 2      -113.5 +j    -30.3      117.5       0.9661
   TERMINAL TOTAL ............  -113.5 +j    -30.3      117.5       0.9661

ELEMENT = "Line.LN5683832-1"
M1047342                 1         9.0 +j      2.4        9.4       0.9659
   TERMINAL TOTAL ............     9.0 +j      2.4        9.4       0.9659
L3197645                 1        -9.0 +j     -2.4        9.4       0.9656
   TERMINAL TOTAL ............    -9.0 +j     -2.4        9.4       0.9656

ELEMENT = "Line.LN6077778-1"
M1069192                 1         9.0 +j      2.4        9.3       0.9660
   TERMINAL TOTAL ............     9.0 +j      2.4        9.3       0.9660
L3235253                 1        -9.0 +j     -2.4        9.3       0.9657
   TERMINAL TOTAL ............    -9.0 +j     -2.4        9.3       0.9657

ELEMENT = "Line.LN5561442-2"
L3214071                 1      2742.8 +j    518.6     2791.4       0.9826
L3214071                 2      2695.5 +j    563.9     2753.9       0.9788
L3214071                 3      1948.9 +j    158.3     1955.3       0.9967
   TERMINAL TOTAL ............  7387.2 +j   1240.8     7490.7       0.9862
M1125952                 1     -2740.3 +j   -515.4     2788.4       0.9828
M1125952                 2     -2694.6 +j   -560.1     2752.2       0.9791
M1125952                 3     -1948.9 +j   -157.4     1955.3       0.9968
   TERMINAL TOTAL ............ -7383.9 +j  -1233.0     7486.2       0.9863

ELEMENT = "Line.LN6259983-1"
M1027101                 2         9.9 +j      2.6       10.3       0.9663
   TERMINAL TOTAL ............     9.9 +j      2.6       10.3       0.9663
L2860480                 2        -9.9 +j     -2.7       10.3       0.9658
   TERMINAL TOTAL ............    -9.9 +j     -2.7       10.3       0.9658

ELEMENT = "Line.LN5865244-1"
L2710517                 1       111.5 +j     29.7      115.4       0.9663
   TERMINAL TOTAL ............   111.5 +j     29.7      115.4       0.9663
M1026646                 1      -111.5 +j    -29.7      115.3       0.9663
   TERMINAL TOTAL ............  -111.5 +j    -29.7      115.3       0.9663

ELEMENT = "Line.LN6350555-1"
M1069662                 2         5.9 +j      1.6        6.2       0.9661
   TERMINAL TOTAL ............     5.9 +j      1.6        6.2       0.9661
L2935547                 2        -5.9 +j     -1.6        6.2       0.9657
   TERMINAL TOTAL ............    -5.9 +j     -1.6        6.2       0.9657

ELEMENT = "Line.LN5714039-1"
M1026931                 1        39.7 +j     10.6       41.1       0.9659
   TERMINAL TOTAL ............    39.7 +j     10.6       41.1       0.9659
L3216336                 1       -39.7 +j    -10.6       41.1       0.9659
   TERMINAL TOTAL ............   -39.7 +j    -10.6       41.1       0.9659

ELEMENT = "Line.LN5889821-1"
L3142049                 1      2347.1 +j    347.4     2372.7       0.9892
L3142049                 2      2283.1 +j    365.9     2312.3       0.9874
L3142049                 3      1682.5 +j     67.6     1683.8       0.9992
   TERMINAL TOTAL ............  6312.7 +j    780.8     6360.8       0.9924
M1108493                 1     -2344.2 +j   -343.5     2369.3       0.9894
M1108493                 2     -2282.2 +j   -361.6     2310.6       0.9877
M1108493                 3     -1682.5 +j    -66.5     1683.8       0.9992
   TERMINAL TOTAL ............ -6308.9 +j   -771.7     6355.9       0.9926

ELEMENT = "Line.LN5804791-1"
M1069169                 1       426.4 +j   -196.3      469.4      -0.9084
M1069169                 2       606.0 +j   -137.3      621.4      -0.9753
M1069169                 3       220.2 +j   -260.4      341.0      -0.6456
   TERMINAL TOTAL ............  1252.5 +j   -594.0     1386.3      -0.9035
L3010556                 1      -425.8 +j    196.3      468.9      -0.9081
L3010556                 2      -605.2 +j    137.7      620.6      -0.9751
L3010556                 3      -220.0 +j    260.5      341.0      -0.6452
   TERMINAL TOTAL ............ -1251.0 +j    594.6     1385.1      -0.9032

ELEMENT = "Line.LN5653486-1"
L2991933                 3        31.2 +j      8.3       32.3       0.9661
   TERMINAL TOTAL ............    31.2 +j      8.3       32.3       0.9661
L3122837                 3       -31.2 +j     -8.3       32.3       0.9661
   TERMINAL TOTAL ............   -31.2 +j     -8.3       32.3       0.9661

ELEMENT = "Line.LN5926286-1"
L3216336                 1        30.7 +j      8.2       31.8       0.9660
   TERMINAL TOTAL ............    30.7 +j      8.2       31.8       0.9660
L2691936                 1       -30.7 +j     -8.2       31.8       0.9659
   TERMINAL TOTAL ............   -30.7 +j     -8.2       31.8       0.9659

ELEMENT = "Line.LN6318859-1"
L2897772                 1         0.0 +j     -0.0        0.0      -0.0000
   TERMINAL TOTAL ............     0.0 +j     -0.0        0.0      -0.0000
L3101814                 1        -0.0 +j      0.0        0.0      -0.7572
   TERMINAL TOTAL ............    -0.0 +j      0.0        0.0      -0.7572

ELEMENT = "Line.LN5926316-1"
L2766732                 2        80.5 +j     21.6       83.3       0.9657
   TERMINAL TOTAL ............    80.5 +j     21.6       83.3       0.9657
M1026485                 2       -80.5 +j    -21.6       83.3       0.9657
   TERMINAL TOTAL ............   -80.5 +j    -21.6       83.3       0.9657

ELEMENT = "Line.LN5591703-1"
L2804269                 2        17.8 +j      4.7       18.4       0.9664
   TERMINAL TOTAL ............    17.8 +j      4.7       18.4       0.9664
L2989564                 2       -17.8 +j     -4.7       18.4       0.9663
   TERMINAL TOTAL ............   -17.8 +j     -4.7       18.4       0.9663

ELEMENT = "Line.LN5531333-1"
M1126016                 1        36.3 +j      9.7       37.6       0.9662
   TERMINAL TOTAL ............    36.3 +j      9.7       37.6       0.9662
L3120534                 1       -36.3 +j     -9.7       37.6       0.9661
   TERMINAL TOTAL ............   -36.3 +j     -9.7       37.6       0.9661

ELEMENT = "Line.LN6047581-1"
M1026330                 2         5.9 +j      1.6        6.1       0.9660
   TERMINAL TOTAL ............     5.9 +j      1.6        6.1       0.9660
L2766726                 2        -5.9 +j     -1.6        6.1       0.9659
   TERMINAL TOTAL ............    -5.9 +j     -1.6        6.1       0.9659

ELEMENT = "Line.LN6349077-1"
P901912                  2         0.0 +j     -0.0        0.0      -0.0000
   TERMINAL TOTAL ............     0.0 +j     -0.0        0.0      -0.0000
L3195365                 2         0.0 +j      0.0        0.0       1.0000
   TERMINAL TOTAL ............     0.0 +j      0.0        0.0       1.0000

ELEMENT = "Line.LN6350574-1"
M1108381                 1        63.5 +j     16.8       65.7       0.9667
M1108381                 2        66.0 +j     17.5       68.3       0.9665
M1108381                 3        62.4 +j     16.5       64.6       0.9669
   TERMINAL TOTAL ............   192.0 +j     50.8      198.6       0.9667
L3254237                 1       -63.5 +j    -16.8       65.7       0.9667
L3254237                 2       -66.0 +j    -17.5       68.3       0.9665
L3254237                 3       -62.4 +j    -16.5       64.6       0.9668
   TERMINAL TOTAL ............  -191.9 +j    -50.9      198.6       0.9666

ELEMENT = "Line.LN6320343-1"
L2804262                 1       122.0 +j     32.6      126.3       0.9660
   TERMINAL TOTAL ............   122.0 +j     32.6      126.3       0.9660
L2841639                 1      -122.0 +j    -32.6      126.3       0.9660
   TERMINAL TOTAL ............  -122.0 +j    -32.6      126.3       0.9660

ELEMENT = "Line.LN81048100-5"
N1230123                 2       187.8 +j     50.3      194.4       0.9660
   TERMINAL TOTAL ............   187.8 +j     50.3      194.4       0.9660
L2708744                 2      -187.8 +j    -50.3      194.4       0.9660
   TERMINAL TOTAL ............  -187.8 +j    -50.3      194.4       0.9660

ELEMENT = "Line.LN6348946-1"
M1069519                 2         9.9 +j      2.6       10.2       0.9662
   TERMINAL TOTAL ............     9.9 +j      2.6       10.2       0.9662
P901927                  2        -9.9 +j     -2.6       10.2       0.9661
...